test/data/json/issue_1009.json
{"baseMVA":100.0,"branch":{"1":{"angmax":0.5235987755982988,"angmin":-0.5235987755982988,"b_fr":0.0264,"b_to":0.0264,"base_kv":1000000,"br_r":0.0192,"br_status":1,"br_x":0.0575,"c_rating_a":1000,"f_bus":1,"g_fr":0.0,"g_to":0.0,"index":1,"rate_a":1.38,"rate_b":1.38,"rate_c":1.38,"shift":0.0,"source_id":["branch",1],"t_bus":2,"tap":1.0,"transformer":false},"10":{"angmax":0.5235987755982988,"angmin":-0.5235987755982988,"b_fr":0.0045,"b_to":0.0045,"base_kv":1000000,"br_r":0.012,"br_status":1,"br_x":0.042,"c_rating_a":1000,"f_bus":6,"g_fr":0.0,"g_to":0.0,"index":10,"rate_a":1.48,"rate_b":1.48,"rate_c":1.48,"shift":0.0,"source_id":["branch",10],"t_bus":8,"tap":1.0,"transformer":false},"11":{"angmax":0.5235987755982988,"angmin":-0.5235987755982988,"b_fr":0.0,"b_to":0.0,"base_kv":1000000,"br_r":0.0,"br_status":1,"br_x":0.208,"c_rating_a":1000,"f_bus":6,"g_fr":0.0,"g_to":0.0,"index":11,"rate_a":1.42,"rate_b":1.42,"rate_c":1.42,"shift":0.0,"source_id":["branch",11],"t_bus":9,"tap":1.0,"transformer":true},"12":{"angmax":0.5235987755982988,"angmin":-0.5235987755982988,"b_fr":0.0,"b_to":0.0,"base_kv":1000000,"br_r":0.0,"br_status":1,"br_x":0.556,"c_rating_a":1000,"f_bus":6,"g_fr":0.0,"g_to":0.0,"index":12,"rate_a":0.53,"rate_b":0.53,"rate_c":0.53,"shift":0.0,"source_id":["branch",12],"t_bus":10,"tap":1.0,"transformer":true},"13":{"angmax":0.5235987755982988,"angmin":-0.5235987755982988,"b_fr":0.0,"b_to":0.0,"base_kv":1000000,"br_r":0.0,"br_status":1,"br_x":0.208,"c_rating_a":1000,"f_bus":9,"g_fr":0.0,"g_to":0.0,"index":13,"rate_a":1.42,"rate_b":1.42,"rate_c":1.42,"shift":0.0,"source_id":["branch",13],"t_bus":11,"tap":1.0,"transformer":false},"14":{"angmax":0.5235987755982988,"angmin":-0.5235987755982988,"b_fr":0.0,"b_to":0.0,"base_kv":1000000,"br_r":0.0,"br_status":1,"br_x":0.11,"c_rating_a":1000,"f_bus":9,"g_fr":0.0,"g_to":0.0,"index":14,"rate_a":2.67,"rate_b":2.67,"rate_c":2.67,"shift":0.0,"source_id":["branch",14],"t_bus":10,"tap":1.0,"transformer":false},"15":{"angmax":0.5235987755982988,"angmin":-0.5235987755982988,"b_fr":0.0,"b_to":0.0,"base_kv":1000000,"br_r":0.0,"br_status":1,"br_x":0.256,"c_rating_a":1000,"f_bus":4,"g_fr":0.0,"g_to":0.0,"index":15,"rate_a":1.15,"rate_b":1.15,"rate_c":1.15,"shift":0.0,"source_id":["branch",15],"t_bus":12,"tap":1.0,"transformer":true},"16":{"angmax":0.5235987755982988,"angmin":-0.5235987755982988,"b_fr":0.0,"b_to":0.0,"base_kv":1000000,"br_r":0.0,"br_status":1,"br_x":0.14,"c_rating_a":1000,"f_bus":12,"g_fr":0.0,"g_to":0.0,"index":16,"rate_a":2.1,"rate_b":2.1,"rate_c":2.1,"shift":0.0,"source_id":["branch",16],"t_bus":13,"tap":1.0,"transformer":false},"17":{"angmax":0.5235987755982988,"angmin":-0.5235987755982988,"b_fr":0.0,"b_to":0.0,"base_kv":1000000,"br_r":0.1231,"br_status":1,"br_x":0.2559,"c_rating_a":1000,"f_bus":12,"g_fr":0.0,"g_to":0.0,"index":17,"rate_a":0.29,"rate_b":0.29,"rate_c":0.29,"shift":0.0,"source_id":["branch",17],"t_bus":14,"tap":1.0,"transformer":false},"18":{"angmax":0.5235987755982988,"angmin":-0.5235987755982988,"b_fr":0.0,"b_to":0.0,"base_kv":1000000,"br_r":0.0662,"br_status":1,"br_x":0.1304,"c_rating_a":1000,"f_bus":12,"g_fr":0.0,"g_to":0.0,"index":18,"rate_a":0.29,"rate_b":0.29,"rate_c":0.29,"shift":0.0,"source_id":["branch",18],"t_bus":15,"tap":1.0,"transformer":false},"19":{"angmax":0.5235987755982988,"angmin":-0.5235987755982988,"b_fr":0.0,"b_to":0.0,"base_kv":1000000,"br_r":0.0945,"br_status":1,"br_x":0.1987,"c_rating_a":1000,"f_bus":12,"g_fr":0.0,"g_to":0.0,"index":19,"rate_a":0.3,"rate_b":0.3,"rate_c":0.3,"shift":0.0,"source_id":["branch",19],"t_bus":16,"tap":1.0,"transformer":false},"2":{"angmax":0.5235987755982988,"angmin":-0.5235987755982988,"b_fr":0.0204,"b_to":0.0204,"base_kv":1000000,"br_r":0.0452,"br_status":1,"br_x":0.1652,"c_rating_a":1000,"f_bus":1,"g_fr":0.0,"g_to":0.0,"index":2,"rate_a":1.52,"rate_b":1.52,"rate_c":1.52,"shift":0.0,"source_id":["branch",2],"t_bus":3,"tap":1.0,"transformer":false},"20":{"angmax":0.5235987755982988,"angmin":-0.5235987755982988,"b_fr":0.0,"b_to":0.0,"base_kv":1000000,"br_r":0.221,"br_status":1,"br_x":0.1997,"c_rating_a":1000,"f_bus":14,"g_fr":0.0,"g_to":0.0,"index":20,"rate_a":0.2,"rate_b":0.2,"rate_c":0.2,"shift":0.0,"source_id":["branch",20],"t_bus":15,"tap":1.0,"transformer":false},"21":{"angmax":0.5235987755982988,"angmin":-0.5235987755982988,"b_fr":0.0,"b_to":0.0,"base_kv":1000000,"br_r":0.0524,"br_status":1,"br_x":0.1923,"c_rating_a":1000,"f_bus":16,"g_fr":0.0,"g_to":0.0,"index":21,"rate_a":0.38,"rate_b":0.38,"rate_c":0.38,"shift":0.0,"source_id":["branch",21],"t_bus":17,"tap":1.0,"transformer":false},"22":{"angmax":0.5235987755982988,"angmin":-0.5235987755982988,"b_fr":0.0,"b_to":0.0,"base_kv":1000000,"br_r":0.1073,"br_status":1,"br_x":0.2185,"c_rating_a":1000,"f_bus":15,"g_fr":0.0,"g_to":0.0,"index":22,"rate_a":0.29,"rate_b":0.29,"rate_c":0.29,"shift":0.0,"source_id":["branch",22],"t_bus":18,"tap":1.0,"transformer":false},"23":{"angmax":0.5235987755982988,"angmin":-0.5235987755982988,"b_fr":0.0,"b_to":0.0,"base_kv":1000000,"br_r":0.0639,"br_status":1,"br_x":0.1292,"c_rating_a":1000,"f_bus":18,"g_fr":0.0,"g_to":0.0,"index":23,"rate_a":0.29,"rate_b":0.29,"rate_c":0.29,"shift":0.0,"source_id":["branch",23],"t_bus":19,"tap":1.0,"transformer":false},"24":{"angmax":0.5235987755982988,"angmin":-0.5235987755982988,"b_fr":0.0,"b_to":0.0,"base_kv":1000000,"br_r":0.034,"br_status":1,"br_x":0.068,"c_rating_a":1000,"f_bus":19,"g_fr":0.0,"g_to":0.0,"index":24,"rate_a":0.29,"rate_b":0.29,"rate_c":0.29,"shift":0.0,"source_id":["branch",24],"t_bus":20,"tap":1.0,"transformer":false},"25":{"angmax":0.5235987755982988,"angmin":-0.5235987755982988,"b_fr":0.0,"b_to":0.0,"base_kv":1000000,"br_r":0.0936,"br_status":1,"br_x":0.209,"c_rating_a":1000,"f_bus":10,"g_fr":0.0,"g_to":0.0,"index":25,"rate_a":0.3,"rate_b":0.3,"rate_c":0.3,"shift":0.0,"source_id":["branch",25],"t_bus":20,"tap":1.0,"transformer":false},"26":{"angmax":0.5235987755982988,"angmin":-0.5235987755982988,"b_fr":0.0,"b_to":0.0,"base_kv":1000000,"br_r":0.0324,"br_status":1,"br_x":0.0845,"c_rating_a":1000,"f_bus":10,"g_fr":0.0,"g_to":0.0,"index":26,"rate_a":0.33,"rate_b":0.33,"rate_c":0.33,"shift":0.0,"source_id":["branch",26],"t_bus":17,"tap":1.0,"transformer":false},"27":{"angmax":0.5235987755982988,"angmin":-0.5235987755982988,"b_fr":0.0,"b_to":0.0,"base_kv":1000000,"br_r":0.0348,"br_status":1,"br_x":0.0749,"c_rating_a":1000,"f_bus":10,"g_fr":0.0,"g_to":0.0,"index":27,"rate_a":0.3,"rate_b":0.3,"rate_c":0.3,"shift":0.0,"source_id":["branch",27],"t_bus":21,"tap":1.0,"transformer":false},"28":{"angmax":0.5235987755982988,"angmin":-0.5235987755982988,"b_fr":0.0,"b_to":0.0,"base_kv":1000000,"br_r":0.0727,"br_status":1,"br_x":0.1499,"c_rating_a":1000,"f_bus":10,"g_fr":0.0,"g_to":0.0,"index":28,"rate_a":0.29,"rate_b":0.29,"rate_c":0.29,"shift":0.0,"source_id":["branch",28],"t_bus":22,"tap":1.0,"transformer":false},"29":{"angmax":0.5235987755982988,"angmin":-0.5235987755982988,"b_fr":0.0,"b_to":0.0,"base_kv":1000000,"br_r":0.0116,"br_status":1,"br_x":0.0236,"c_rating_a":1000,"f_bus":21,"g_fr":0.0,"g_to":0.0,"index":29,"rate_a":0.29,"rate_b":0.29,"rate_c":0.29,"shift":0.0,"source_id":["branch",29],"t_bus":22,"tap":1.0,"transformer":false},"3":{"angmax":0.5235987755982988,"angmin":-0.5235987755982988,"b_fr":0.0184,"b_to":0.0184,"base_kv":1000000,"br_r":0.057,"br_status":1,"br_x":0.1737,"c_rating_a":1000,"f_bus":2,"g_fr":0.0,"g_to":0.0,"index":3,"rate_a":1.39,"rate_b":1.39,"rate_c":1.39,"shift":0.0,"source_id":["branch",3],"t_bus":4,"tap":1.0,"transformer":false},"30":{"angmax":0.5235987755982988,"angmin":-0.5235987755982988,"b_fr":0.0,"b_to":0.0,"base_kv":1000000,"br_r":0.1,"br_status":1,"br_x":0.202,"c_rating_a":1000,"f_bus":15,"g_fr":0.0,"g_to":0.0,"index":30,"rate_a":0.29,"rate_b":0.29,"rate_c":0.29,"shift":0.0,"source_id":["branch",30],"t_bus":23,"tap":1.0,"transformer":false},"31":{"angmax":0.5235987755982988,"angmin":-0.5235987755982988,"b_fr":0.0,"b_to":0.0,"base_kv":1000000,"br_r":0.115,"br_status":1,"br_x":0.179,"c_rating_a":1000,"f_bus":22,"g_fr":0.0,"g_to":0.0,"index":31,"rate_a":0.26,"rate_b":0.26,"rate_c":0.26,"shift":0.0,"source_id":["branch",31],"t_bus":24,"tap":1.0,"transformer":false},"32":{"angmax":0.5235987755982988,"angmin":-0.5235987755982988,"b_fr":0.0,"b_to":0.0,"base_kv":1000000,"br_r":0.132,"br_status":1,"br_x":0.27,"c_rating_a":1000,"f_bus":23,"g_fr":0.0,"g_to":0.0,"index":32,"rate_a":0.29,"rate_b":0.29,"rate_c":0.29,"shift":0.0,"source_id":["branch",32],"t_bus":24,"tap":1.0,"transformer":false},"33":{"angmax":0.5235987755982988,"angmin":-0.5235987755982988,"b_fr":0.0,"b_to":0.0,"base_kv":1000000,"br_r":0.1885,"br_status":1,"br_x":0.3292,"c_rating_a":1000,"f_bus":24,"g_fr":0.0,"g_to":0.0,"index":33,"rate_a":0.27,"rate_b":0.27,"rate_c":0.27,"shift":0.0,"source_id":["branch",33],"t_bus":25,"tap":1.0,"transformer":false},"34":{"angmax":0.5235987755982988,"angmin":-0.5235987755982988,"b_fr":0.0,"b_to":0.0,"base_kv":1000000,"br_r":0.2544,"br_status":1,"br_x":0.38,"c_rating_a":1000,"f_bus":25,"g_fr":0.0,"g_to":0.0,"index":34,"rate_a":0.25,"rate_b":0.25,"rate_c":0.25,"shift":0.0,"source_id":["branch",34],"t_bus":26,"tap":1.0,"transformer":false},"35":{"angmax":0.5235987755982988,"angmin":-0.5235987755982988,"b_fr":0.0,"b_to":0.0,"base_kv":1000000,"br_r":0.1093,"br_status":1,"br_x":0.2087,"c_rating_a":1000,"f_bus":25,"g_fr":0.0,"g_to":0.0,"index":35,"rate_a":0.28,"rate_b":0.28,"rate_c":0.28,"shift":0.0,"source_id":["branch",35],"t_bus":27,"tap":1.0,"transformer":false},"36":{"angmax":0.5235987755982988,"angmin":-0.5235987755982988,"b_fr":0.0,"b_to":0.0,"base_kv":1000000,"br_r":0.0,"br_status":1,"br_x":0.396,"c_rating_a":1000,"f_bus":28,"g_fr":0.0,"g_to":0.0,"index":36,"rate_a":0.75,"rate_b":0.75,"rate_c":0.75,"shift":0.0,"source_id":["branch",36],"t_bus":27,"tap":1.0,"transformer":true},"37":{"angmax":0.5235987755982988,"angmin":-0.5235987755982988,"b_fr":0.0,"b_to":0.0,"base_kv":1000000,"br_r":0.2198,"br_status":1,"br_x":0.4153,"c_rating_a":1000,"f_bus":27,"g_fr":0.0,"g_to":0.0,"index":37,"rate_a":0.28,"rate_b":0.28,"rate_c":0.28,"shift":0.0,"source_id":["branch",37],"t_bus":29,"tap":1.0,"transformer":false},"38":{"angmax":0.5235987755982988,"angmin":-0.5235987755982988,"b_fr":0.0,"b_to":0.0,"base_kv":1000000,"br_r":0.3202,"br_status":1,"br_x":0.6027,"c_rating_a":1000,"f_bus":27,"g_fr":0.0,"g_to":0.0,"index":38,"rate_a":0.28,"rate_b":0.28,"rate_c":0.28,"shift":0.0,"source_id":["branch",38],"t_bus":30,"tap":1.0,"transformer":false},"39":{"angmax":0.5235987755982988,"angmin":-0.5235987755982988,"b_fr":0.0,"b_to":0.0,"base_kv":1000000,"br_r":0.2399,"br_status":1,"br_x":0.4533,"c_rating_a":1000,"f_bus":29,"g_fr":0.0,"g_to":0.0,"index":39,"rate_a":0.28,"rate_b":0.28,"rate_c":0.28,"shift":0.0,"source_id":["branch",39],"t_bus":30,"tap":1.0,"transformer":false},"4":{"angmax":0.5235987755982988,"angmin":-0.5235987755982988,"b_fr":0.0042,"b_to":0.0042,"base_kv":1000000,"br_r":0.0132,"br_status":1,"br_x":0.0379,"c_rating_a":1000,"f_bus":3,"g_fr":0.0,"g_to":0.0,"index":4,"rate_a":1.35,"rate_b":1.35,"rate_c":1.35,"shift":0.0,"source_id":["branch",4],"t_bus":4,"tap":1.0,"transformer":false},"40":{"angmax":0.5235987755982988,"angmin":-0.5235987755982988,"b_fr":0.0214,"b_to":0.0214,"base_kv":1000000,"br_r":0.0636,"br_status":1,"br_x":0.2,"c_rating_a":1000,"f_bus":8,"g_fr":0.0,"g_to":0.0,"index":40,"rate_a":1.4,"rate_b":1.4,"rate_c":1.4,"shift":0.0,"source_id":["branch",40],"t_bus":28,"tap":1.0,"transformer":false},"41":{"angmax":0.5235987755982988,"angmin":-0.5235987755982988,"b_fr":0.0065,"b_to":0.0065,"base_kv":1000000,"br_r":0.0169,"br_status":1,"br_x":0.0599,"c_rating_a":1000,"f_bus":6,"g_fr":0.0,"g_to":0.0,"index":41,"rate_a":1.49,"rate_b":1.49,"rate_c":1.49,"shift":0.0,"source_id":["branch",41],"t_bus":28,"tap":1.0,"transformer":false},"5":{"angmax":0.5235987755982988,"angmin":-0.5235987755982988,"b_fr":0.0209,"b_to":0.0209,"base_kv":1000000,"br_r":0.0472,"br_status":1,"br_x":0.1983,"c_rating_a":1000,"f_bus":2,"g_fr":0.0,"g_to":0.0,"index":5,"rate_a":1.44,"rate_b":1.44,"rate_c":1.44,"shift":0.0,"source_id":["branch",5],"t_bus":5,"tap":1.0,"transformer":false},"6":{"angmax":0.5235987755982988,"angmin":-0.5235987755982988,"b_fr":0.0187,"b_to":0.0187,"base_kv":1000000,"br_r":0.0581,"br_status":1,"br_x":0.1763,"c_rating_a":1000,"f_bus":2,"g_fr":0.0,"g_to":0.0,"index":6,"rate_a":1.39,"rate_b":1.39,"rate_c":1.39,"shift":0.0,"source_id":["branch",6],"t_bus":6,"tap":1.0,"transformer":false},"7":{"angmax":0.5235987755982988,"angmin":-0.5235987755982988,"b_fr":0.0045,"b_to":0.0045,"base_kv":1000000,"br_r":0.0119,"br_status":1,"br_x":0.0414,"c_rating_a":1000,"f_bus":4,"g_fr":0.0,"g_to":0.0,"index":7,"rate_a":1.48,"rate_b":1.48,"rate_c":1.48,"shift":0.0,"source_id":["branch",7],"t_bus":6,"tap":1.0,"transformer":false},"8":{"angmax":0.5235987755982988,"angmin":-0.5235987755982988,"b_fr":0.0102,"b_to":0.0102,"base_kv":1000000,"br_r":0.046,"br_status":1,"br_x":0.116,"c_rating_a":1000,"f_bus":5,"g_fr":0.0,"g_to":0.0,"index":8,"rate_a":1.27,"rate_b":1.27,"rate_c":1.27,"shift":0.0,"source_id":["branch",8],"t_bus":7,"tap":1.0,"transformer":false},"9":{"angmax":0.5235987755982988,"angmin":-0.5235987755982988,"b_fr":0.0085,"b_to":0.0085,"base_kv":1000000,"br_r":0.0267,"br_status":1,"br_x":0.082,"c_rating_a":1000,"f_bus":6,"g_fr":0.0,"g_to":0.0,"index":9,"rate_a":1.4,"rate_b":1.4,"rate_c":1.4,"shift":0.0,"source_id":["branch",9],"t_bus":7,"tap":1.0,"transformer":false}},"bus":{"1":{"area":1,"base_kv":132.0,"bus_i":1,"bus_type":3,"index":1,"source_id":["bus",1],"va":-0.0,"va_start":0.0,"vm":1.06,"vm_start":1.06,"vmax":1.06,"vmin":0.94,"zone":1},"10":{"area":1,"base_kv":33.0,"bus_i":10,"bus_type":1,"index":10,"source_id":["bus",10],"va":-0.26000693465735125,"va_start":-0.46147271775213294,"vm":1.0322,"vm_start":1.2544810451733248,"vmax":1.06,"vmin":0.94,"zone":1},"11":{"area":1,"base_kv":11.0,"bus_i":11,"bus_type":1,"index":11,"source_id":["bus",11],"va":-0.23153799656344573,"va_start":-0.42370885779108963,"vm":1.06,"vm_start":1.06,"vmax":1.06,"vmin":0.94,"zone":1},"12":{"area":1,"base_kv":33.0,"bus_i":12,"bus_type":1,"index":12,"source_id":["bus",12],"va":-0.24764092784112102,"va_start":-0.4228096761259599,"vm":1.04625,"vm_start":1.1703351217672342,"vmax":1.06,"vmin":0.94,"zone":1},"13":{"area":1,"base_kv":11.0,"bus_i":13,"bus_type":1,"index":13,"source_id":["bus",13],"va":-0.24764092784112102,"va_start":-0.4228096761259599,"vm":1.06,"vm_start":1.06,"vmax":1.06,"vmin":0.94,"zone":1},"14":{"area":1,"base_kv":33.0,"bus_i":14,"bus_type":1,"index":14,"source_id":["bus",14],"va":-0.2634499456727605,"va_start":-0.46725975461989544,"vm":1.03103,"vm_start":1.2230019240546535,"vmax":1.06,"vmin":0.94,"zone":1},"15":{"area":1,"base_kv":33.0,"bus_i":15,"bus_type":1,"index":15,"source_id":["bus",15],"va":-0.26491200798715614,"va_start":-0.48128703879115703,"vm":1.02621,"vm_start":1.2393486708921861,"vmax":1.06,"vmin":0.94,"zone":1},"16":{"area":1,"base_kv":33.0,"bus_i":16,"bus_type":1,"index":16,"source_id":["bus",16],"va":-0.2574919152052274,"va_start":-0.4592999429959802,"vm":1.03259,"vm_start":1.2249181815013999,"vmax":1.06,"vmin":0.94,"zone":1},"17":{"area":1,"base_kv":33.0,"bus_i":17,"bus_type":1,"index":17,"source_id":["bus",17],"va":-0.2631040214150152,"va_start":-0.4682618285380654,"vm":1.02726,"vm_start":1.2511494508654968,"vmax":1.06,"vmin":0.94,"zone":1},"18":{"area":1,"base_kv":33.0,"bus_i":18,"bus_type":1,"index":18,"source_id":["bus",18],"va":-0.275593073943511,"va_start":-0.5117589301491474,"vm":1.01602,"vm_start":1.2912031428590445,"vmax":1.06,"vmin":0.94,"zone":1},"19":{"area":1,"base_kv":33.0,"bus_i":19,"bus_type":1,"index":19,"source_id":["bus",19],"va":-0.2785250525539363,"va_start":-0.5157566544284227,"vm":1.01317,"vm_start":1.3007013278142185,"vmax":1.06,"vmin":0.94,"zone":1},"2":{"area":1,"base_kv":132.0,"bus_i":2,"bus_type":2,"index":2,"source_id":["bus",2],"va":-0.07175903766282166,"va_start":-0.13587787109031887,"vm":1.03591,"vm_start":1.03591,"vmax":1.06,"vmin":0.94,"zone":1},"20":{"area":1,"base_kv":33.0,"bus_i":20,"bus_type":1,"index":20,"source_id":["bus",20],"va":-0.2749160607266624,"va_start":-0.5070958723758932,"vm":1.01714,"vm_start":1.2983860329011807,"vmax":1.06,"vmin":0.94,"zone":1},"21":{"area":1,"base_kv":33.0,"bus_i":21,"bus_type":1,"index":21,"source_id":["bus",21],"va":-0.2679549895380082,"va_start":-0.4831885159527206,"vm":1.01982,"vm_start":1.2752009365761652,"vmax":1.06,"vmin":0.94,"zone":1},"22":{"area":1,"base_kv":33.0,"bus_i":22,"bus_type":1,"index":22,"source_id":["bus",22],"va":-0.2677090726464022,"va_start":-0.4849370372651219,"vm":1.02041,"vm_start":1.281903931026427,"vmax":1.06,"vmin":0.94,"zone":1},"23":{"area":1,"base_kv":33.0,"bus_i":23,"bus_type":1,"index":23,"source_id":["bus",23],"va":-0.27164304478039747,"va_start":-0.5094114115170972,"vm":1.01532,"vm_start":1.2968932935345034,"vmax":1.06,"vmin":0.94,"zone":1},"24":{"area":1,"base_kv":33.0,"bus_i":24,"bus_type":1,"index":24,"source_id":["bus",24],"va":-0.2744699545698527,"va_start":-0.5176597618900498,"vm":1.0093,"vm_start":1.3307637370364254,"vmax":1.06,"vmin":0.94,"zone":1},"25":{"area":1,"base_kv":33.0,"bus_i":25,"bus_type":1,"index":25,"source_id":["bus",25],"va":-0.26688492817361054,"va_start":-0.5259816634714733,"vm":1.00621,"vm_start":1.4171680200894838,"vmax":1.06,"vmin":0.94,"zone":1},"26":{"area":1,"base_kv":33.0,"bus_i":26,"bus_type":1,"index":26,"source_id":["bus",26],"va":-0.2743750086585442,"va_start":-0.5736819376666629,"vm":0.98833,"vm_start":1.4843159694169208,"vmax":1.06,"vmin":0.94,"zone":1},"27":{"area":1,"base_kv":33.0,"bus_i":27,"bus_type":1,"index":27,"source_id":["bus",27],"va":-0.25754497321448805,"va_start":-0.4892793177097355,"vm":1.01294,"vm_start":1.390208281195296,"vmax":1.06,"vmin":0.94,"zone":1},"28":{"area":1,"base_kv":132.0,"bus_i":28,"bus_type":1,"index":28,"source_id":["bus",28],"va":-0.18841998645877622,"va_start":-0.3713441835376122,"vm":0.99824,"vm_start":1.0730853953712225,"vmax":1.06,"vmin":0.94,"zone":1},"29":{"area":1,"base_kv":33.0,"bus_i":29,"bus_type":1,"index":29,"source_id":["bus",29],"va":-0.2794589782366785,"va_start":-0.54790611864832,"vm":0.99288,"vm_start":1.471423739961167,"vmax":1.06,"vmin":0.94,"zone":1},"3":{"area":1,"base_kv":132.0,"bus_i":3,"bus_type":1,"index":3,"source_id":["bus",3],"va":-0.11961998000978577,"va_start":-0.23307311719908314,"vm":1.01502,"vm_start":1.0533297817698226,"vmax":1.06,"vmin":0.94,"zone":1},"30":{"area":1,"base_kv":33.0,"bus_i":30,"bus_type":1,"index":30,"source_id":["bus",30],"va":-0.2951999282274901,"va_start":-0.564992606676615,"vm":0.98128,"vm_start":1.4721117844387426,"vmax":1.06,"vmin":0.94,"zone":1},"4":{"area":1,"base_kv":132.0,"bus_i":4,"bus_type":1,"index":4,"source_id":["bus",4],"va":-0.1474059707673859,"va_start":-0.2844098127120569,"vm":1.00446,"vm_start":1.049912478902637,"vmax":1.06,"vmin":0.94,"zone":1},"5":{"area":1,"base_kv":132.0,"bus_i":5,"bus_type":2,"index":5,"source_id":["bus",5],"va":-0.22919995349747413,"va_start":-0.4069375929838946,"vm":0.99748,"vm_start":0.99748,"vmax":1.06,"vmin":0.94,"zone":1},"6":{"area":1,"base_kv":132.0,"bus_i":6,"bus_type":1,"index":6,"source_id":["bus",6],"va":-0.17726803067023328,"va_start":-0.3378156721533825,"vm":1.0017,"vm_start":1.0439587392114,"vmax":1.06,"vmin":0.94,"zone":1},"7":{"area":1,"base_kv":132.0,"bus_i":7,"bus_type":1,"index":7,"source_id":["bus",7],"va":-0.20799193415771544,"va_start":-0.3844512177729745,"vm":0.99208,"vm_start":1.022129207852011,"vmax":1.06,"vmin":0.94,"zone":1},"8":{"area":1,"base_kv":132.0,"bus_i":8,"bus_type":1,"index":8,"source_id":["bus",8],"va":-0.19084494692149714,"va_start":-0.34849979586682683,"vm":1.00241,"vm_start":1.00241,"vmax":1.06,"vmin":0.94,"zone":1},"9":{"area":1,"base_kv":1.0,"bus_i":9,"bus_type":1,"index":9,"source_id":["bus",9],"va":-0.23153799656344573,"va_start":-0.42370885779108963,"vm":1.03671,"vm_start":1.1582552973595328,"vmax":1.06,"vmin":0.94,"zone":1}},"dcline":{},"gen":{"1":{"cost":[52.1378,0.0],"gen_bus":1,"gen_status":1,"index":1,"mbase":100.0,"model":2,"ncost":2,"pg":3.6327274,"pg_start":4.023376890237636,"pmax":7.84,"pmin":0.0,"qg":0.09372,"qg_start":-0.6278800136207331,"qmax":0.1,"qmin":-1,"shutdown":0.0,"source_id":["gen",1],"startup":0.0,"vg":1.06},"2":{"cost":[113.51659999999998,0.0],"gen_bus":2,"gen_status":1,"index":2,"mbase":100.0,"model":2,"ncost":2,"pg":1.32883,"pg_start":1.32883,"pmax":1.0,"pmin":0.0,"qg":0.24589,"qg_start":-0.10735458671823846,"qmax":0.5,"qmin":-0.4,"shutdown":0.0,"source_id":["gen",2],"startup":0.0,"vg":1.03591},"3":{"cost":[],"gen_bus":5,"gen_status":1,"index":3,"mbase":100.0,"model":2,"ncost":0,"pg":0.0,"pg_start":0.0,"pmax":0.0,"pmin":0.0,"qg":0.32487,"qg_start":0.20769149531846023,"qmax":0.4,"qmin":-0.4,"shutdown":0.0,"source_id":["gen",3],"startup":0.0,"vg":0.99748}},"load":{"1":{"index":1,"load_bus":2,"pd":0.36022,"qd":0.127,"source_id":["bus",2],"status":1},"10":{"index":10,"load_bus":15,"pd":0.13611999999999996,"qd":0.025,"source_id":["bus",15],"status":1},"11":{"index":11,"load_bus":16,"pd":0.058100000000000006,"qd":0.018000000000000002,"source_id":["bus",16],"status":1},"12":{"index":12,"load_bus":17,"pd":0.14939999999999998,"qd":0.057999999999999996,"source_id":["bus",17],"status":1},"1234504":{"index":1234504,"load_bus":8,"pd":-0.0,"qd":0.1,"status":1},"1234505":{"index":1234505,"load_bus":11,"pd":-0.0,"qd":0.06,"status":1},"1234506":{"index":1234506,"load_bus":13,"pd":-0.0,"qd":0.06,"status":1},"13":{"index":13,"load_bus":18,"pd":0.05312,"qd":0.009000000000000001,"source_id":["bus",18],"status":1},"14":{"index":14,"load_bus":19,"pd":0.1577,"qd":0.034,"source_id":["bus",19],"status":1},"15":{"index":15,"load_bus":20,"pd":0.036520000000000004,"qd":0.006999999999999999,"source_id":["bus",20],"status":1},"16":{"index":16,"load_bus":21,"pd":0.2905,"qd":0.11199999999999999,"source_id":["bus",21],"status":1},"17":{"index":17,"load_bus":23,"pd":0.05312,"qd":0.016,"source_id":["bus",23],"status":1},"18":{"index":18,"load_bus":24,"pd":0.14442,"qd":0.067,"source_id":["bus",24],"status":1},"19":{"index":19,"load_bus":26,"pd":0.058100000000000006,"qd":0.023,"source_id":["bus",26],"status":1},"2":{"index":2,"load_bus":3,"pd":0.03984,"qd":0.012,"source_id":["bus",3],"status":1},"20":{"index":20,"load_bus":29,"pd":0.03984,"qd":0.009000000000000001,"source_id":["bus",29],"status":1},"21":{"index":21,"load_bus":30,"pd":0.17595999999999998,"qd":0.019,"source_id":["bus",30],"status":1},"3":{"index":3,"load_bus":4,"pd":0.12616,"qd":0.016,"source_id":["bus",4],"status":1},"4":{"index":4,"load_bus":5,"pd":1.56372,"qd":0.19,"source_id":["bus",5],"status":1},"5":{"index":5,"load_bus":7,"pd":0.37848,"qd":0.109,"source_id":["bus",7],"status":1},"6":{"index":6,"load_bus":8,"pd":0.49799999999999994,"qd":0.3,"source_id":["bus",8],"status":1},"7":{"index":7,"load_bus":10,"pd":0.09627999999999999,"qd":0.02,"source_id":["bus",10],"status":1},"8":{"index":8,"load_bus":12,"pd":0.18591999999999997,"qd":0.075,"source_id":["bus",12],"status":1},"9":{"index":9,"load_bus":14,"pd":0.10292,"qd":0.016,"source_id":["bus",14],"status":1}},"name":"case30","per_unit":true,"shunt":{"1":{"bs":0.19,"gs":0.0,"index":1,"shunt_bus":10,"source_id":["bus",10],"status":1},"12340001":{"bs":0.15,"gs":0.0,"index":12340001,"shunt_bus":1,"status":1},"123400010":{"bs":0.15,"gs":0.0,"index":123400010,"shunt_bus":10,"status":1},"123400011":{"bs":0.15,"gs":0.0,"index":123400011,"shunt_bus":11,"status":1},"123400012":{"bs":0.15,"gs":0.0,"index":123400012,"shunt_bus":12,"status":1},"123400013":{"bs":0.15,"gs":0.0,"index":123400013,"shunt_bus":13,"status":1},"123400014":{"bs":0.15,"gs":0.0,"index":123400014,"shunt_bus":14,"status":1},"123400015":{"bs":0.15,"gs":0.0,"index":123400015,"shunt_bus":15,"status":1},"123400016":{"bs":0.15,"gs":0.0,"index":123400016,"shunt_bus":16,"status":1},"123400017":{"bs":0.15,"gs":0.0,"index":123400017,"shunt_bus":17,"status":1},"123400018":{"bs":0.15,"gs":0.0,"index":123400018,"shunt_bus":18,"status":1},"123400019":{"bs":0.15,"gs":0.0,"index":123400019,"shunt_bus":19,"status":1},"12340002":{"bs":0.15,"gs":0.0,"index":12340002,"shunt_bus":2,"status":1},"123400020":{"bs":0.15,"gs":0.0,"index":123400020,"shunt_bus":20,"status":1},"123400021":{"bs":0.15,"gs":0.0,"index":123400021,"shunt_bus":21,"status":1},"123400022":{"bs":0.15,"gs":0.0,"index":123400022,"shunt_bus":22,"status":1},"123400023":{"bs":0.15,"gs":0.0,"index":123400023,"shunt_bus":23,"status":1},"123400024":{"bs":0.15,"gs":0.0,"index":123400024,"shunt_bus":24,"status":1},"123400025":{"bs":0.15,"gs":0.0,"index":123400025,"shunt_bus":25,"status":1},"123400026":{"bs":0.15,"gs":0.0,"index":123400026,"shunt_bus":26,"status":1},"123400027":{"bs":0.15,"gs":0.0,"index":123400027,"shunt_bus":27,"status":1},"123400028":{"bs":0.15,"gs":0.0,"index":123400028,"shunt_bus":28,"status":1},"123400029":{"bs":0.15,"gs":0.0,"index":123400029,"shunt_bus":29,"status":1},"12340003":{"bs":0.15,"gs":0.0,"index":12340003,"shunt_bus":3,"status":1},"123400030":{"bs":0.15,"gs":0.0,"index":123400030,"shunt_bus":30,"status":1},"12340004":{"bs":0.15,"gs":0.0,"index":12340004,"shunt_bus":4,"status":1},"12340005":{"bs":0.15,"gs":0.0,"index":12340005,"shunt_bus":5,"status":1},"12340006":{"bs":0.15,"gs":0.0,"index":12340006,"shunt_bus":6,"status":1},"12340007":{"bs":0.15,"gs":0.0,"index":12340007,"shunt_bus":7,"status":1},"12340008":{"bs":0.15,"gs":0.0,"index":12340008,"shunt_bus":8,"status":1},"12340009":{"bs":0.15,"gs":0.0,"index":12340009,"shunt_bus":9,"status":1},"2":{"bs":0.043,"gs":0.0,"index":2,"shunt_bus":24,"source_id":["bus",24],"status":1}},"source_type":"matpower","source_version":"2","storage":{},"switch":{}}